
---------- Begin Simulation Statistics ----------
sim_seconds                                  0.015929                       # Number of seconds simulated
sim_ticks                                 15928877500                       # Number of ticks simulated
final_tick                                15928877500                       # Number of ticks from beginning of simulation (restored from checkpoints and never reset)
sim_freq                                 1000000000000                       # Frequency of simulated ticks
host_inst_rate                                 207894                       # Simulator instruction rate (inst/s)
host_op_rate                                   280766                       # Simulator op (including micro ops) rate (op/s)
host_tick_rate                              186694514                       # Simulator tick rate (ticks/s)
host_mem_usage                                 664288                       # Number of bytes of host memory used
host_seconds                                    85.32                       # Real time elapsed on the host
sim_insts                                    17737634                       # Number of instructions simulated
sim_ops                                      23955121                       # Number of ops (including micro ops) simulated
system.clk_domain.voltage_domain.voltage            1                       # Voltage in Volts
system.clk_domain.clock                           500                       # Clock period in ticks
system.mem_ctrl.pwrStateResidencyTicks::UNDEFINED  15928877500                       # Cumulative time (in ticks) in various power states
system.mem_ctrl.bytes_read::.cpu.inst           81728                       # Number of bytes read from this memory
system.mem_ctrl.bytes_read::.cpu.data          166848                       # Number of bytes read from this memory
system.mem_ctrl.bytes_read::total              248576                       # Number of bytes read from this memory
system.mem_ctrl.bytes_inst_read::.cpu.inst        81728                       # Number of instructions bytes read from this memory
system.mem_ctrl.bytes_inst_read::total          81728                       # Number of instructions bytes read from this memory
system.mem_ctrl.bytes_written::.writebacks         1024                       # Number of bytes written to this memory
system.mem_ctrl.bytes_written::total             1024                       # Number of bytes written to this memory
system.mem_ctrl.num_reads::.cpu.inst             1277                       # Number of read requests responded to by this memory
system.mem_ctrl.num_reads::.cpu.data             2607                       # Number of read requests responded to by this memory
system.mem_ctrl.num_reads::total                 3884                       # Number of read requests responded to by this memory
system.mem_ctrl.num_writes::.writebacks            16                       # Number of write requests responded to by this memory
system.mem_ctrl.num_writes::total                  16                       # Number of write requests responded to by this memory
system.mem_ctrl.bw_read::.cpu.inst            5130807                       # Total read bandwidth from this memory (bytes/s)
system.mem_ctrl.bw_read::.cpu.data           10474561                       # Total read bandwidth from this memory (bytes/s)
system.mem_ctrl.bw_read::total               15605368                       # Total read bandwidth from this memory (bytes/s)
system.mem_ctrl.bw_inst_read::.cpu.inst       5130807                       # Instruction read bandwidth from this memory (bytes/s)
system.mem_ctrl.bw_inst_read::total           5130807                       # Instruction read bandwidth from this memory (bytes/s)
system.mem_ctrl.bw_write::.writebacks           64286                       # Write bandwidth from this memory (bytes/s)
system.mem_ctrl.bw_write::total                 64286                       # Write bandwidth from this memory (bytes/s)
system.mem_ctrl.bw_total::.writebacks           64286                       # Total bandwidth to/from this memory (bytes/s)
system.mem_ctrl.bw_total::.cpu.inst           5130807                       # Total bandwidth to/from this memory (bytes/s)
system.mem_ctrl.bw_total::.cpu.data          10474561                       # Total bandwidth to/from this memory (bytes/s)
system.mem_ctrl.bw_total::total              15669654                       # Total bandwidth to/from this memory (bytes/s)
system.mem_ctrl.avgPriority_.writebacks::samples        16.00                       # Average QoS priority value for accepted requests
system.mem_ctrl.avgPriority_.cpu.inst::samples      1278.00                       # Average QoS priority value for accepted requests
system.mem_ctrl.avgPriority_.cpu.data::samples      2605.00                       # Average QoS priority value for accepted requests
system.mem_ctrl.priorityMinLatency       0.000000018750                       # per QoS priority minimum request to response latency (s)
system.mem_ctrl.priorityMaxLatency       0.000001104750                       # per QoS priority maximum request to response latency (s)
system.mem_ctrl.numReadWriteTurnArounds             0                       # Number of turnarounds from READ to WRITE
system.mem_ctrl.numWriteReadTurnArounds             0                       # Number of turnarounds from WRITE to READ
system.mem_ctrl.numStayReadState                 7872                       # Number of times bus staying in READ state
system.mem_ctrl.numStayWriteState                   0                       # Number of times bus staying in WRITE state
system.mem_ctrl.readReqs                         3885                       # Number of read requests accepted
system.mem_ctrl.writeReqs                          16                       # Number of write requests accepted
system.mem_ctrl.readBursts                       3885                       # Number of DRAM read bursts, including those serviced by the write queue
system.mem_ctrl.writeBursts                        16                       # Number of DRAM write bursts, including those merged in the write queue
system.mem_ctrl.bytesReadDRAM                  248512                       # Total number of bytes read from DRAM
system.mem_ctrl.bytesReadWrQ                      128                       # Total number of bytes read from write queue
system.mem_ctrl.bytesWritten                        0                       # Total number of bytes written to DRAM
system.mem_ctrl.bytesReadSys                   248640                       # Total read bytes from the system interface side
system.mem_ctrl.bytesWrittenSys                  1024                       # Total written bytes from the system interface side
system.mem_ctrl.servicedByWrQ                       2                       # Number of DRAM read bursts serviced by the write queue
system.mem_ctrl.mergedWrBursts                      0                       # Number of DRAM write bursts merged with an existing one
system.mem_ctrl.neitherReadNorWriteReqs             0                       # Number of requests that are neither read nor write
system.mem_ctrl.perBankRdBursts::0                342                       # Per bank write bursts
system.mem_ctrl.perBankRdBursts::1                265                       # Per bank write bursts
system.mem_ctrl.perBankRdBursts::2                347                       # Per bank write bursts
system.mem_ctrl.perBankRdBursts::3                352                       # Per bank write bursts
system.mem_ctrl.perBankRdBursts::4                224                       # Per bank write bursts
system.mem_ctrl.perBankRdBursts::5                184                       # Per bank write bursts
system.mem_ctrl.perBankRdBursts::6                247                       # Per bank write bursts
system.mem_ctrl.perBankRdBursts::7                315                       # Per bank write bursts
system.mem_ctrl.perBankRdBursts::8                212                       # Per bank write bursts
system.mem_ctrl.perBankRdBursts::9                192                       # Per bank write bursts
system.mem_ctrl.perBankRdBursts::10               215                       # Per bank write bursts
system.mem_ctrl.perBankRdBursts::11               230                       # Per bank write bursts
system.mem_ctrl.perBankRdBursts::12               189                       # Per bank write bursts
system.mem_ctrl.perBankRdBursts::13               254                       # Per bank write bursts
system.mem_ctrl.perBankRdBursts::14               165                       # Per bank write bursts
system.mem_ctrl.perBankRdBursts::15               150                       # Per bank write bursts
system.mem_ctrl.perBankWrBursts::0                  0                       # Per bank write bursts
system.mem_ctrl.perBankWrBursts::1                  0                       # Per bank write bursts
system.mem_ctrl.perBankWrBursts::2                  0                       # Per bank write bursts
system.mem_ctrl.perBankWrBursts::3                  0                       # Per bank write bursts
system.mem_ctrl.perBankWrBursts::4                  0                       # Per bank write bursts
system.mem_ctrl.perBankWrBursts::5                  0                       # Per bank write bursts
system.mem_ctrl.perBankWrBursts::6                  0                       # Per bank write bursts
system.mem_ctrl.perBankWrBursts::7                  0                       # Per bank write bursts
system.mem_ctrl.perBankWrBursts::8                  0                       # Per bank write bursts
system.mem_ctrl.perBankWrBursts::9                  0                       # Per bank write bursts
system.mem_ctrl.perBankWrBursts::10                 0                       # Per bank write bursts
system.mem_ctrl.perBankWrBursts::11                 0                       # Per bank write bursts
system.mem_ctrl.perBankWrBursts::12                 0                       # Per bank write bursts
system.mem_ctrl.perBankWrBursts::13                 0                       # Per bank write bursts
system.mem_ctrl.perBankWrBursts::14                 0                       # Per bank write bursts
system.mem_ctrl.perBankWrBursts::15                 0                       # Per bank write bursts
system.mem_ctrl.numRdRetry                          0                       # Number of times read queue was full causing retry
system.mem_ctrl.numWrRetry                          0                       # Number of times write queue was full causing retry
system.mem_ctrl.totGap                    15928839500                       # Total gap between requests
system.mem_ctrl.readPktSize::0                      0                       # Read request sizes (log2)
system.mem_ctrl.readPktSize::1                      0                       # Read request sizes (log2)
system.mem_ctrl.readPktSize::2                      0                       # Read request sizes (log2)
system.mem_ctrl.readPktSize::3                      0                       # Read request sizes (log2)
system.mem_ctrl.readPktSize::4                      0                       # Read request sizes (log2)
system.mem_ctrl.readPktSize::5                      0                       # Read request sizes (log2)
system.mem_ctrl.readPktSize::6                   3885                       # Read request sizes (log2)
system.mem_ctrl.writePktSize::0                     0                       # Write request sizes (log2)
system.mem_ctrl.writePktSize::1                     0                       # Write request sizes (log2)
system.mem_ctrl.writePktSize::2                     0                       # Write request sizes (log2)
system.mem_ctrl.writePktSize::3                     0                       # Write request sizes (log2)
system.mem_ctrl.writePktSize::4                     0                       # Write request sizes (log2)
system.mem_ctrl.writePktSize::5                     0                       # Write request sizes (log2)
system.mem_ctrl.writePktSize::6                    16                       # Write request sizes (log2)
system.mem_ctrl.rdQLenPdf::0                     2981                       # What read queue length does an incoming req see
system.mem_ctrl.rdQLenPdf::1                      812                       # What read queue length does an incoming req see
system.mem_ctrl.rdQLenPdf::2                       88                       # What read queue length does an incoming req see
system.mem_ctrl.rdQLenPdf::3                        2                       # What read queue length does an incoming req see
system.mem_ctrl.rdQLenPdf::4                        0                       # What read queue length does an incoming req see
system.mem_ctrl.rdQLenPdf::5                        0                       # What read queue length does an incoming req see
system.mem_ctrl.rdQLenPdf::6                        0                       # What read queue length does an incoming req see
system.mem_ctrl.rdQLenPdf::7                        0                       # What read queue length does an incoming req see
system.mem_ctrl.rdQLenPdf::8                        0                       # What read queue length does an incoming req see
system.mem_ctrl.rdQLenPdf::9                        0                       # What read queue length does an incoming req see
system.mem_ctrl.rdQLenPdf::10                       0                       # What read queue length does an incoming req see
system.mem_ctrl.rdQLenPdf::11                       0                       # What read queue length does an incoming req see
system.mem_ctrl.rdQLenPdf::12                       0                       # What read queue length does an incoming req see
system.mem_ctrl.rdQLenPdf::13                       0                       # What read queue length does an incoming req see
system.mem_ctrl.rdQLenPdf::14                       0                       # What read queue length does an incoming req see
system.mem_ctrl.rdQLenPdf::15                       0                       # What read queue length does an incoming req see
system.mem_ctrl.rdQLenPdf::16                       0                       # What read queue length does an incoming req see
system.mem_ctrl.rdQLenPdf::17                       0                       # What read queue length does an incoming req see
system.mem_ctrl.rdQLenPdf::18                       0                       # What read queue length does an incoming req see
system.mem_ctrl.rdQLenPdf::19                       0                       # What read queue length does an incoming req see
system.mem_ctrl.rdQLenPdf::20                       0                       # What read queue length does an incoming req see
system.mem_ctrl.rdQLenPdf::21                       0                       # What read queue length does an incoming req see
system.mem_ctrl.rdQLenPdf::22                       0                       # What read queue length does an incoming req see
system.mem_ctrl.rdQLenPdf::23                       0                       # What read queue length does an incoming req see
system.mem_ctrl.rdQLenPdf::24                       0                       # What read queue length does an incoming req see
system.mem_ctrl.rdQLenPdf::25                       0                       # What read queue length does an incoming req see
system.mem_ctrl.rdQLenPdf::26                       0                       # What read queue length does an incoming req see
system.mem_ctrl.rdQLenPdf::27                       0                       # What read queue length does an incoming req see
system.mem_ctrl.rdQLenPdf::28                       0                       # What read queue length does an incoming req see
system.mem_ctrl.rdQLenPdf::29                       0                       # What read queue length does an incoming req see
system.mem_ctrl.rdQLenPdf::30                       0                       # What read queue length does an incoming req see
system.mem_ctrl.rdQLenPdf::31                       0                       # What read queue length does an incoming req see
system.mem_ctrl.wrQLenPdf::0                        1                       # What write queue length does an incoming req see
system.mem_ctrl.wrQLenPdf::1                        1                       # What write queue length does an incoming req see
system.mem_ctrl.wrQLenPdf::2                        1                       # What write queue length does an incoming req see
system.mem_ctrl.wrQLenPdf::3                        1                       # What write queue length does an incoming req see
system.mem_ctrl.wrQLenPdf::4                        1                       # What write queue length does an incoming req see
system.mem_ctrl.wrQLenPdf::5                        1                       # What write queue length does an incoming req see
system.mem_ctrl.wrQLenPdf::6                        1                       # What write queue length does an incoming req see
system.mem_ctrl.wrQLenPdf::7                        1                       # What write queue length does an incoming req see
system.mem_ctrl.wrQLenPdf::8                        1                       # What write queue length does an incoming req see
system.mem_ctrl.wrQLenPdf::9                        1                       # What write queue length does an incoming req see
system.mem_ctrl.wrQLenPdf::10                       1                       # What write queue length does an incoming req see
system.mem_ctrl.wrQLenPdf::11                       1                       # What write queue length does an incoming req see
system.mem_ctrl.wrQLenPdf::12                       1                       # What write queue length does an incoming req see
system.mem_ctrl.wrQLenPdf::13                       1                       # What write queue length does an incoming req see
system.mem_ctrl.wrQLenPdf::14                       1                       # What write queue length does an incoming req see
system.mem_ctrl.wrQLenPdf::15                       1                       # What write queue length does an incoming req see
system.mem_ctrl.wrQLenPdf::16                       0                       # What write queue length does an incoming req see
system.mem_ctrl.wrQLenPdf::17                       0                       # What write queue length does an incoming req see
system.mem_ctrl.wrQLenPdf::18                       0                       # What write queue length does an incoming req see
system.mem_ctrl.wrQLenPdf::19                       0                       # What write queue length does an incoming req see
system.mem_ctrl.wrQLenPdf::20                       0                       # What write queue length does an incoming req see
system.mem_ctrl.wrQLenPdf::21                       0                       # What write queue length does an incoming req see
system.mem_ctrl.wrQLenPdf::22                       0                       # What write queue length does an incoming req see
system.mem_ctrl.wrQLenPdf::23                       0                       # What write queue length does an incoming req see
system.mem_ctrl.wrQLenPdf::24                       0                       # What write queue length does an incoming req see
system.mem_ctrl.wrQLenPdf::25                       0                       # What write queue length does an incoming req see
system.mem_ctrl.wrQLenPdf::26                       0                       # What write queue length does an incoming req see
system.mem_ctrl.wrQLenPdf::27                       0                       # What write queue length does an incoming req see
system.mem_ctrl.wrQLenPdf::28                       0                       # What write queue length does an incoming req see
system.mem_ctrl.wrQLenPdf::29                       0                       # What write queue length does an incoming req see
system.mem_ctrl.wrQLenPdf::30                       0                       # What write queue length does an incoming req see
system.mem_ctrl.wrQLenPdf::31                       0                       # What write queue length does an incoming req see
system.mem_ctrl.wrQLenPdf::32                       0                       # What write queue length does an incoming req see
system.mem_ctrl.wrQLenPdf::33                       0                       # What write queue length does an incoming req see
system.mem_ctrl.wrQLenPdf::34                       0                       # What write queue length does an incoming req see
system.mem_ctrl.wrQLenPdf::35                       0                       # What write queue length does an incoming req see
system.mem_ctrl.wrQLenPdf::36                       0                       # What write queue length does an incoming req see
system.mem_ctrl.wrQLenPdf::37                       0                       # What write queue length does an incoming req see
system.mem_ctrl.wrQLenPdf::38                       0                       # What write queue length does an incoming req see
system.mem_ctrl.wrQLenPdf::39                       0                       # What write queue length does an incoming req see
system.mem_ctrl.wrQLenPdf::40                       0                       # What write queue length does an incoming req see
system.mem_ctrl.wrQLenPdf::41                       0                       # What write queue length does an incoming req see
system.mem_ctrl.wrQLenPdf::42                       0                       # What write queue length does an incoming req see
system.mem_ctrl.wrQLenPdf::43                       0                       # What write queue length does an incoming req see
system.mem_ctrl.wrQLenPdf::44                       0                       # What write queue length does an incoming req see
system.mem_ctrl.wrQLenPdf::45                       0                       # What write queue length does an incoming req see
system.mem_ctrl.wrQLenPdf::46                       0                       # What write queue length does an incoming req see
system.mem_ctrl.wrQLenPdf::47                       0                       # What write queue length does an incoming req see
system.mem_ctrl.wrQLenPdf::48                       0                       # What write queue length does an incoming req see
system.mem_ctrl.wrQLenPdf::49                       0                       # What write queue length does an incoming req see
system.mem_ctrl.wrQLenPdf::50                       0                       # What write queue length does an incoming req see
system.mem_ctrl.wrQLenPdf::51                       0                       # What write queue length does an incoming req see
system.mem_ctrl.wrQLenPdf::52                       0                       # What write queue length does an incoming req see
system.mem_ctrl.wrQLenPdf::53                       0                       # What write queue length does an incoming req see
system.mem_ctrl.wrQLenPdf::54                       0                       # What write queue length does an incoming req see
system.mem_ctrl.wrQLenPdf::55                       0                       # What write queue length does an incoming req see
system.mem_ctrl.wrQLenPdf::56                       0                       # What write queue length does an incoming req see
system.mem_ctrl.wrQLenPdf::57                       0                       # What write queue length does an incoming req see
system.mem_ctrl.wrQLenPdf::58                       0                       # What write queue length does an incoming req see
system.mem_ctrl.wrQLenPdf::59                       0                       # What write queue length does an incoming req see
system.mem_ctrl.wrQLenPdf::60                       0                       # What write queue length does an incoming req see
system.mem_ctrl.wrQLenPdf::61                       0                       # What write queue length does an incoming req see
system.mem_ctrl.wrQLenPdf::62                       0                       # What write queue length does an incoming req see
system.mem_ctrl.wrQLenPdf::63                       0                       # What write queue length does an incoming req see
system.mem_ctrl.bytesPerActivate::samples          745                       # Bytes accessed per row activation
system.mem_ctrl.bytesPerActivate::mean     330.824161                       # Bytes accessed per row activation
system.mem_ctrl.bytesPerActivate::gmean    196.139848                       # Bytes accessed per row activation
system.mem_ctrl.bytesPerActivate::stdev    341.591488                       # Bytes accessed per row activation
system.mem_ctrl.bytesPerActivate::0-127           248     33.29%     33.29% # Bytes accessed per row activation
system.mem_ctrl.bytesPerActivate::128-255          181     24.30%     57.58% # Bytes accessed per row activation
system.mem_ctrl.bytesPerActivate::256-383           92     12.35%     69.93% # Bytes accessed per row activation
system.mem_ctrl.bytesPerActivate::384-511           45      6.04%     75.97% # Bytes accessed per row activation
system.mem_ctrl.bytesPerActivate::512-639           27      3.62%     79.60% # Bytes accessed per row activation
system.mem_ctrl.bytesPerActivate::640-767           22      2.95%     82.55% # Bytes accessed per row activation
system.mem_ctrl.bytesPerActivate::768-895           11      1.48%     84.03% # Bytes accessed per row activation
system.mem_ctrl.bytesPerActivate::896-1023           11      1.48%     85.50% # Bytes accessed per row activation
system.mem_ctrl.bytesPerActivate::1024-1151          108     14.50%    100.00% # Bytes accessed per row activation
system.mem_ctrl.bytesPerActivate::total           745                       # Bytes accessed per row activation
system.mem_ctrl.masterReadBytes::.cpu.inst        81792                       # Per-master bytes read from memory
system.mem_ctrl.masterReadBytes::.cpu.data       166720                       # Per-master bytes read from memory
system.mem_ctrl.masterReadRate::.cpu.inst 5134825.099885412492                       # Per-master bytes read from memory rate (Bytes/sec)
system.mem_ctrl.masterReadRate::.cpu.data 10466525.340533254668                       # Per-master bytes read from memory rate (Bytes/sec)
system.mem_ctrl.masterReadAccesses::.cpu.inst         1278                       # Per-master read serviced memory accesses
system.mem_ctrl.masterReadAccesses::.cpu.data         2607                       # Per-master read serviced memory accesses
system.mem_ctrl.masterWriteAccesses::.writebacks           16                       # Per-master write serviced memory accesses
system.mem_ctrl.masterReadTotalLat::.cpu.inst     43094500                       # Per-master read total memory access latency
system.mem_ctrl.masterReadTotalLat::.cpu.data     83884000                       # Per-master read total memory access latency
system.mem_ctrl.masterReadAvgLat::.cpu.inst     33720.27                       # Per-master read average memory access latency
system.mem_ctrl.masterReadAvgLat::.cpu.data     32176.45                       # Per-master read average memory access latency
system.mem_ctrl.masterWriteAvgLat::.writebacks         0.00                       # Per-master write average memory access latency
system.mem_ctrl.totQLat                      54172250                       # Total ticks spent queuing
system.mem_ctrl.totMemAccLat                126978500                       # Total ticks spent from burst creation until serviced by the DRAM
system.mem_ctrl.totBusLat                    19415000                       # Total ticks spent in databus transfers
system.mem_ctrl.avgQLat                      13951.13                       # Average queueing delay per DRAM burst
system.mem_ctrl.avgBusLat                     5000.00                       # Average bus latency per DRAM burst
system.mem_ctrl.avgMemAccLat                 32701.13                       # Average memory access latency per DRAM burst
system.mem_ctrl.avgRdBW                         15.60                       # Average DRAM read bandwidth in MiByte/s
system.mem_ctrl.avgWrBW                          0.00                       # Average achieved write bandwidth in MiByte/s
system.mem_ctrl.avgRdBWSys                      15.61                       # Average system read bandwidth in MiByte/s
system.mem_ctrl.avgWrBWSys                       0.06                       # Average system write bandwidth in MiByte/s
system.mem_ctrl.peakBW                       12800.00                       # Theoretical peak bandwidth in MiByte/s
system.mem_ctrl.busUtil                          0.12                       # Data bus utilization in percentage
system.mem_ctrl.busUtilRead                      0.12                       # Data bus utilization in percentage for reads
system.mem_ctrl.busUtilWrite                     0.00                       # Data bus utilization in percentage for writes
system.mem_ctrl.avgRdQLen                        1.01                       # Average read queue length when enqueuing
system.mem_ctrl.avgWrQLen                        0.04                       # Average write queue length when enqueuing
system.mem_ctrl.readRowHits                      3129                       # Number of row buffer hits during reads
system.mem_ctrl.writeRowHits                        0                       # Number of row buffer hits during writes
system.mem_ctrl.readRowHitRate                  80.58                       # Row buffer hit rate for reads
system.mem_ctrl.writeRowHitRate                  0.00                       # Row buffer hit rate for writes
system.mem_ctrl.avgGap                     4083270.83                       # Average gap between requests
system.mem_ctrl.pageHitRate                     80.25                       # Row buffer hit rate, read and write combined
system.mem_ctrl_0.actEnergy                   3284400                       # Energy for activate commands per rank (pJ)
system.mem_ctrl_0.preEnergy                   1730520                       # Energy for precharge commands per rank (pJ)
system.mem_ctrl_0.readEnergy                 16250640                       # Energy for read commands per rank (pJ)
system.mem_ctrl_0.writeEnergy                       0                       # Energy for write commands per rank (pJ)
system.mem_ctrl_0.refreshEnergy          40566240.000000                       # Energy for refresh commands per rank (pJ)
system.mem_ctrl_0.actBackEnergy              35822790                       # Energy for active background per rank (pJ)
system.mem_ctrl_0.preBackEnergy               1264800                       # Energy for precharge background per rank (pJ)
system.mem_ctrl_0.actPowerDownEnergy        179812770                       # Energy for active power-down per rank (pJ)
system.mem_ctrl_0.prePowerDownEnergy         17016480                       # Energy for precharge power-down per rank (pJ)
system.mem_ctrl_0.selfRefreshEnergy        3699116880                       # Energy for self refresh per rank (pJ)
system.mem_ctrl_0.totalEnergy              3994865520                       # Total energy per rank (pJ)
system.mem_ctrl_0.averagePower             250.793913                       # Core power per rank (mW)
system.mem_ctrl_0.totalIdleTime           15847066000                       # Total Idle time Per DRAM Rank
system.mem_ctrl_0.memoryStateTime::IDLE       1056500                       # Time in different power states
system.mem_ctrl_0.memoryStateTime::REF       17160000                       # Time in different power states
system.mem_ctrl_0.memoryStateTime::SREF   15408385250                       # Time in different power states
system.mem_ctrl_0.memoryStateTime::PRE_PDN     44308000                       # Time in different power states
system.mem_ctrl_0.memoryStateTime::ACT       63595000                       # Time in different power states
system.mem_ctrl_0.memoryStateTime::ACT_PDN    394372750                       # Time in different power states
system.mem_ctrl_1.actEnergy                   2099160                       # Energy for activate commands per rank (pJ)
system.mem_ctrl_1.preEnergy                   1096755                       # Energy for precharge commands per rank (pJ)
system.mem_ctrl_1.readEnergy                 11473980                       # Energy for read commands per rank (pJ)
system.mem_ctrl_1.writeEnergy                       0                       # Energy for write commands per rank (pJ)
system.mem_ctrl_1.refreshEnergy          34419840.000000                       # Energy for refresh commands per rank (pJ)
system.mem_ctrl_1.actBackEnergy              26342550                       # Energy for active background per rank (pJ)
system.mem_ctrl_1.preBackEnergy               2974560                       # Energy for precharge background per rank (pJ)
system.mem_ctrl_1.actPowerDownEnergy        153237090                       # Energy for active power-down per rank (pJ)
system.mem_ctrl_1.prePowerDownEnergy         16296000                       # Energy for precharge power-down per rank (pJ)
system.mem_ctrl_1.selfRefreshEnergy        3718027620                       # Energy for self refresh per rank (pJ)
system.mem_ctrl_1.totalEnergy              3965967555                       # Total energy per rank (pJ)
system.mem_ctrl_1.averagePower             248.979726                       # Core power per rank (mW)
system.mem_ctrl_1.totalIdleTime           15863387250                       # Total Idle time Per DRAM Rank
system.mem_ctrl_1.memoryStateTime::IDLE       5853000                       # Time in different power states
system.mem_ctrl_1.memoryStateTime::REF       14560000                       # Time in different power states
system.mem_ctrl_1.memoryStateTime::SREF   15484879000                       # Time in different power states
system.mem_ctrl_1.memoryStateTime::PRE_PDN     42432250                       # Time in different power states
system.mem_ctrl_1.memoryStateTime::ACT       45077250                       # Time in different power states
system.mem_ctrl_1.memoryStateTime::ACT_PDN    336076000                       # Time in different power states
system.pwrStateResidencyTicks::UNDEFINED  15928877500                       # Cumulative time (in ticks) in various power states
system.cpu.branchPred.lookups                 1207495                       # Number of BP lookups
system.cpu.branchPred.condPredicted           1207495                       # Number of conditional branches predicted
system.cpu.branchPred.condIncorrect            179384                       # Number of conditional branches incorrect
system.cpu.branchPred.BTBLookups               917965                       # Number of BTB lookups
system.cpu.branchPred.BTBHits                       0                       # Number of BTB hits
system.cpu.branchPred.BTBCorrect                    0                       # Number of correct BTB predictions (this stat may not work properly.
system.cpu.branchPred.BTBHitPct              0.000000                       # BTB Hit Percentage
system.cpu.branchPred.usedRAS                    3931                       # Number of times the RAS was used to get a target.
system.cpu.branchPred.RASInCorrect                301                       # Number of incorrect RAS predictions.
system.cpu.branchPred.indirectLookups          917965                       # Number of indirect predictor lookups.
system.cpu.branchPred.indirectHits             905578                       # Number of indirect target hits.
system.cpu.branchPred.indirectMisses            12387                       # Number of indirect misses.
system.cpu.branchPredindirectMispredicted         1720                       # Number of mispredicted indirect branches.
system.cpu.dtb.walker.pwrStateResidencyTicks::UNDEFINED  15928877500                       # Cumulative time (in ticks) in various power states
system.cpu.dtb.rdAccesses                     8677549                       # TLB accesses on read requests
system.cpu.dtb.wrAccesses                     1407804                       # TLB accesses on write requests
system.cpu.dtb.rdMisses                            96                       # TLB misses on read requests
system.cpu.dtb.wrMisses                            26                       # TLB misses on write requests
system.cpu.apic_clk_domain.clock                 8000                       # Clock period in ticks
system.cpu.interrupts.pwrStateResidencyTicks::UNDEFINED  15928877500                       # Cumulative time (in ticks) in various power states
system.cpu.itb.walker.pwrStateResidencyTicks::UNDEFINED  15928877500                       # Cumulative time (in ticks) in various power states
system.cpu.itb.rdAccesses                           0                       # TLB accesses on read requests
system.cpu.itb.wrAccesses                     2237163                       # TLB accesses on write requests
system.cpu.itb.rdMisses                             0                       # TLB misses on read requests
system.cpu.itb.wrMisses                           125                       # TLB misses on write requests
system.cpu.workload.numSyscalls                    32                       # Number of system calls
system.cpu.pwrStateResidencyTicks::ON     15928877500                       # Cumulative time (in ticks) in various power states
system.cpu.numCycles                         31857756                       # number of cpu cycles simulated
system.cpu.numWorkItemsStarted                      0                       # number of work items this cpu started
system.cpu.numWorkItemsCompleted                    0                       # number of work items this cpu completed
system.cpu.fetch.icacheStallCycles             327661                       # Number of cycles fetch is stalled on an Icache miss
system.cpu.fetch.Insts                       22188199                       # Number of instructions fetch has processed
system.cpu.fetch.Branches                     1207495                       # Number of branches that fetch encountered
system.cpu.fetch.predictedBranches             909509                       # Number of branches that fetch has predicted taken
system.cpu.fetch.Cycles                      31286464                       # Number of cycles fetch has run and was not squashing or blocked
system.cpu.fetch.SquashCycles                  358998                       # Number of cycles fetch has spent squashing
system.cpu.fetch.MiscStallCycles                    5                       # Number of cycles fetch has spent waiting on interrupts, or bad addresses, or out of MSHRs
system.cpu.fetch.PendingTrapStallCycles            48                       # Number of stall cycles due to pending traps
system.cpu.fetch.PendingQuiesceStallCycles           83                       # Number of stall cycles due to pending quiesce instructions
system.cpu.fetch.CacheLines                   2237158                       # Number of cache lines fetched
system.cpu.fetch.IcacheSquashes                  1499                       # Number of outstanding Icache misses that were squashed
system.cpu.fetch.rateDist::samples           31793760                       # Number of instructions fetched each cycle (Total)
system.cpu.fetch.rateDist::mean              0.936167                       # Number of instructions fetched each cycle (Total)
system.cpu.fetch.rateDist::stdev             0.244454                       # Number of instructions fetched each cycle (Total)
system.cpu.fetch.rateDist::underflows               0      0.00%      0.00% # Number of instructions fetched each cycle (Total)
system.cpu.fetch.rateDist::0                  2029478      6.38%      6.38% # Number of instructions fetched each cycle (Total)
system.cpu.fetch.rateDist::1                 29764282     93.62%    100.00% # Number of instructions fetched each cycle (Total)
system.cpu.fetch.rateDist::overflows                0      0.00%    100.00% # Number of instructions fetched each cycle (Total)
system.cpu.fetch.rateDist::min_value                0                       # Number of instructions fetched each cycle (Total)
system.cpu.fetch.rateDist::max_value                1                       # Number of instructions fetched each cycle (Total)
system.cpu.fetch.rateDist::total             31793760                       # Number of instructions fetched each cycle (Total)
system.cpu.fetch.branchRate                  0.037903                       # Number of branch fetches per cycle
system.cpu.fetch.rate                        0.696477                       # Number of inst fetches per cycle
system.cpu.decode.IdleCycles                  1476444                       # Number of cycles decode is idle
system.cpu.decode.BlockedCycles                907929                       # Number of cycles decode is blocked
system.cpu.decode.RunCycles                  28814179                       # Number of cycles decode is running
system.cpu.decode.UnblockCycles                415709                       # Number of cycles decode is unblocking
system.cpu.decode.SquashCycles                 179499                       # Number of cycles decode is squashing
system.cpu.decode.DecodedInsts               29052934                       # Number of instructions handled by decode
system.cpu.decode.SquashedInsts                176954                       # Number of squashed instructions handled by decode
system.cpu.rename.SquashCycles                 179499                       # Number of cycles rename is squashing
system.cpu.rename.IdleCycles                  2099148                       # Number of cycles rename is idle
system.cpu.rename.BlockCycles                  596656                       # Number of cycles rename is blocking
system.cpu.rename.serializeStallCycles           2785                       # count of cycles rename stalled for serializing inst
system.cpu.rename.RunCycles                  28477582                       # Number of cycles rename is running
system.cpu.rename.UnblockCycles                438090                       # Number of cycles rename is unblocking
system.cpu.rename.RenamedInsts               28699507                       # Number of instructions processed by rename
system.cpu.rename.SquashedInsts                177523                       # Number of squashed instructions processed by rename
system.cpu.rename.ROBFullEvents                   106                       # Number of times rename has blocked due to ROB full
system.cpu.rename.IQFullEvents                  93871                       # Number of times rename has blocked due to IQ full
system.cpu.rename.LQFullEvents                  13792                       # Number of times rename has blocked due to LQ full
system.cpu.rename.SQFullEvents                  24649                       # Number of times rename has blocked due to SQ full
system.cpu.rename.FullRegisterEvents              122                       # Number of times there has been no free registers
system.cpu.rename.RenamedOperands            39219741                       # Number of destination operands rename has renamed
system.cpu.rename.RenameLookups              68631477                       # Number of register rename lookups that rename has made
system.cpu.rename.int_rename_lookups         49368890                       # Number of integer rename lookups
system.cpu.rename.fp_rename_lookups             13935                       # Number of floating rename lookups
system.cpu.rename.CommittedMaps              32812213                       # Number of HB maps that are committed
system.cpu.rename.UndoneMaps                  6407528                       # Number of HB maps that are undone due to squashing
system.cpu.rename.serializingInsts                 80                       # count of serializing insts renamed
system.cpu.rename.tempSerializingInsts             67                       # count of temporary serializing insts renamed
system.cpu.rename.skidInsts                    406656                       # count of insts added to the skid buffer
system.cpu.memDep0.insertedLoads              9349665                       # Number of loads inserted to the mem dependence unit.
system.cpu.memDep0.insertedStores             1612586                       # Number of stores inserted to the mem dependence unit.
system.cpu.memDep0.conflictingLoads           3830590                       # Number of conflicting loads.
system.cpu.memDep0.conflictingStores           444812                       # Number of conflicting stores.
system.cpu.iq.iqInstsAdded                   28393061                       # Number of instructions added to the IQ (excludes non-spec)
system.cpu.iq.iqNonSpecInstsAdded                 154                       # Number of non-speculative instructions added to the IQ
system.cpu.iq.iqInstsIssued                  26182509                       # Number of instructions issued
system.cpu.iq.iqSquashedInstsIssued            139693                       # Number of squashed instructions issued
system.cpu.iq.iqSquashedInstsExamined         4438093                       # Number of squashed instructions iterated over during squash; mainly for profiling
system.cpu.iq.iqSquashedOperandsExamined      6582993                       # Number of squashed operands that are examined and possibly removed from graph
system.cpu.iq.iqSquashedNonSpecRemoved            104                       # Number of squashed non-spec instructions that were removed
system.cpu.iq.issued_per_cycle::samples      31793760                       # Number of insts issued each cycle
system.cpu.iq.issued_per_cycle::mean         0.823511                       # Number of insts issued each cycle
system.cpu.iq.issued_per_cycle::stdev        0.381236                       # Number of insts issued each cycle
system.cpu.iq.issued_per_cycle::underflows            0      0.00%      0.00% # Number of insts issued each cycle
system.cpu.iq.issued_per_cycle::0             5611251     17.65%     17.65% # Number of insts issued each cycle
system.cpu.iq.issued_per_cycle::1            26182509     82.35%    100.00% # Number of insts issued each cycle
system.cpu.iq.issued_per_cycle::overflows            0      0.00%    100.00% # Number of insts issued each cycle
system.cpu.iq.issued_per_cycle::min_value            0                       # Number of insts issued each cycle
system.cpu.iq.issued_per_cycle::max_value            1                       # Number of insts issued each cycle
system.cpu.iq.issued_per_cycle::total        31793760                       # Number of insts issued each cycle
system.cpu.iq.fu_full::No_OpClass                   0                       # attempts to use FU when none available
system.cpu.iq.fu_full::IntAlu                       0                       # attempts to use FU when none available
system.cpu.iq.fu_full::IntMult                      0                       # attempts to use FU when none available
system.cpu.iq.fu_full::IntDiv                       0                       # attempts to use FU when none available
system.cpu.iq.fu_full::FloatAdd                     0                       # attempts to use FU when none available
system.cpu.iq.fu_full::FloatCmp                     0                       # attempts to use FU when none available
system.cpu.iq.fu_full::FloatCvt                     0                       # attempts to use FU when none available
system.cpu.iq.fu_full::FloatMult                    0                       # attempts to use FU when none available
system.cpu.iq.fu_full::FloatMultAcc                 0                       # attempts to use FU when none available
system.cpu.iq.fu_full::FloatDiv                     0                       # attempts to use FU when none available
system.cpu.iq.fu_full::FloatMisc                    0                       # attempts to use FU when none available
system.cpu.iq.fu_full::FloatSqrt                    0                       # attempts to use FU when none available
system.cpu.iq.fu_full::SimdAdd                      0                       # attempts to use FU when none available
system.cpu.iq.fu_full::SimdAddAcc                   0                       # attempts to use FU when none available
system.cpu.iq.fu_full::SimdAlu                      0                       # attempts to use FU when none available
system.cpu.iq.fu_full::SimdCmp                      0                       # attempts to use FU when none available
system.cpu.iq.fu_full::SimdCvt                      0                       # attempts to use FU when none available
system.cpu.iq.fu_full::SimdMisc                     0                       # attempts to use FU when none available
system.cpu.iq.fu_full::SimdMult                     0                       # attempts to use FU when none available
system.cpu.iq.fu_full::SimdMultAcc                  0                       # attempts to use FU when none available
system.cpu.iq.fu_full::SimdShift                    0                       # attempts to use FU when none available
system.cpu.iq.fu_full::SimdShiftAcc                 0                       # attempts to use FU when none available
system.cpu.iq.fu_full::SimdSqrt                     0                       # attempts to use FU when none available
system.cpu.iq.fu_full::SimdFloatAdd                 0                       # attempts to use FU when none available
system.cpu.iq.fu_full::SimdFloatAlu                 0                       # attempts to use FU when none available
system.cpu.iq.fu_full::SimdFloatCmp                 0                       # attempts to use FU when none available
system.cpu.iq.fu_full::SimdFloatCvt                 0                       # attempts to use FU when none available
system.cpu.iq.fu_full::SimdFloatDiv                 0                       # attempts to use FU when none available
system.cpu.iq.fu_full::SimdFloatMisc                0                       # attempts to use FU when none available
system.cpu.iq.fu_full::SimdFloatMult                0                       # attempts to use FU when none available
system.cpu.iq.fu_full::SimdFloatMultAcc             0                       # attempts to use FU when none available
system.cpu.iq.fu_full::SimdFloatSqrt                0                       # attempts to use FU when none available
system.cpu.iq.fu_full::SimdAes                      0                       # attempts to use FU when none available
system.cpu.iq.fu_full::SimdAesMix                   0                       # attempts to use FU when none available
system.cpu.iq.fu_full::SimdSha1Hash                 0                       # attempts to use FU when none available
system.cpu.iq.fu_full::SimdSha1Hash2                0                       # attempts to use FU when none available
system.cpu.iq.fu_full::SimdSha256Hash               0                       # attempts to use FU when none available
system.cpu.iq.fu_full::SimdSha256Hash2              0                       # attempts to use FU when none available
system.cpu.iq.fu_full::SimdShaSigma2                0                       # attempts to use FU when none available
system.cpu.iq.fu_full::SimdShaSigma3                0                       # attempts to use FU when none available
system.cpu.iq.fu_full::MemRead                      0                       # attempts to use FU when none available
system.cpu.iq.fu_full::MemWrite                     0                       # attempts to use FU when none available
system.cpu.iq.fu_full::FloatMemRead                 0                       # attempts to use FU when none available
system.cpu.iq.fu_full::FloatMemWrite                0                       # attempts to use FU when none available
system.cpu.iq.fu_full::IprAccess                    0                       # attempts to use FU when none available
system.cpu.iq.fu_full::InstPrefetch                 0                       # attempts to use FU when none available
system.cpu.iq.FU_type_0::No_OpClass              2287      0.01%      0.01% # Type of FU issued
system.cpu.iq.FU_type_0::IntAlu              16038894     61.26%     61.27% # Type of FU issued
system.cpu.iq.FU_type_0::IntMult                 2162      0.01%     61.28% # Type of FU issued
system.cpu.iq.FU_type_0::IntDiv                  1560      0.01%     61.28% # Type of FU issued
system.cpu.iq.FU_type_0::FloatAdd                 232      0.00%     61.28% # Type of FU issued
system.cpu.iq.FU_type_0::FloatCmp                   0      0.00%     61.28% # Type of FU issued
system.cpu.iq.FU_type_0::FloatCvt                  32      0.00%     61.28% # Type of FU issued
system.cpu.iq.FU_type_0::FloatMult                  0      0.00%     61.28% # Type of FU issued
system.cpu.iq.FU_type_0::FloatMultAcc               0      0.00%     61.28% # Type of FU issued
system.cpu.iq.FU_type_0::FloatDiv                   0      0.00%     61.28% # Type of FU issued
system.cpu.iq.FU_type_0::FloatMisc                  0      0.00%     61.28% # Type of FU issued
system.cpu.iq.FU_type_0::FloatSqrt                  0      0.00%     61.28% # Type of FU issued
system.cpu.iq.FU_type_0::SimdAdd                  835      0.00%     61.29% # Type of FU issued
system.cpu.iq.FU_type_0::SimdAddAcc                 0      0.00%     61.29% # Type of FU issued
system.cpu.iq.FU_type_0::SimdAlu                 1231      0.00%     61.29% # Type of FU issued
system.cpu.iq.FU_type_0::SimdCmp                    0      0.00%     61.29% # Type of FU issued
system.cpu.iq.FU_type_0::SimdCvt                 1148      0.00%     61.29% # Type of FU issued
system.cpu.iq.FU_type_0::SimdMisc                 808      0.00%     61.30% # Type of FU issued
system.cpu.iq.FU_type_0::SimdMult                   0      0.00%     61.30% # Type of FU issued
system.cpu.iq.FU_type_0::SimdMultAcc                0      0.00%     61.30% # Type of FU issued
system.cpu.iq.FU_type_0::SimdShift                321      0.00%     61.30% # Type of FU issued
system.cpu.iq.FU_type_0::SimdShiftAcc               0      0.00%     61.30% # Type of FU issued
system.cpu.iq.FU_type_0::SimdSqrt                   0      0.00%     61.30% # Type of FU issued
system.cpu.iq.FU_type_0::SimdFloatAdd               0      0.00%     61.30% # Type of FU issued
system.cpu.iq.FU_type_0::SimdFloatAlu               0      0.00%     61.30% # Type of FU issued
system.cpu.iq.FU_type_0::SimdFloatCmp               0      0.00%     61.30% # Type of FU issued
system.cpu.iq.FU_type_0::SimdFloatCvt               3      0.00%     61.30% # Type of FU issued
system.cpu.iq.FU_type_0::SimdFloatDiv               1      0.00%     61.30% # Type of FU issued
system.cpu.iq.FU_type_0::SimdFloatMisc              0      0.00%     61.30% # Type of FU issued
system.cpu.iq.FU_type_0::SimdFloatMult              0      0.00%     61.30% # Type of FU issued
system.cpu.iq.FU_type_0::SimdFloatMultAcc            0      0.00%     61.30% # Type of FU issued
system.cpu.iq.FU_type_0::SimdFloatSqrt              0      0.00%     61.30% # Type of FU issued
system.cpu.iq.FU_type_0::SimdAes                    0      0.00%     61.30% # Type of FU issued
system.cpu.iq.FU_type_0::SimdAesMix                 0      0.00%     61.30% # Type of FU issued
system.cpu.iq.FU_type_0::SimdSha1Hash               0      0.00%     61.30% # Type of FU issued
system.cpu.iq.FU_type_0::SimdSha1Hash2              0      0.00%     61.30% # Type of FU issued
system.cpu.iq.FU_type_0::SimdSha256Hash             0      0.00%     61.30% # Type of FU issued
system.cpu.iq.FU_type_0::SimdSha256Hash2            0      0.00%     61.30% # Type of FU issued
system.cpu.iq.FU_type_0::SimdShaSigma2              0      0.00%     61.30% # Type of FU issued
system.cpu.iq.FU_type_0::SimdShaSigma3              0      0.00%     61.30% # Type of FU issued
system.cpu.iq.FU_type_0::MemRead              8714880     33.29%     94.58% # Type of FU issued
system.cpu.iq.FU_type_0::MemWrite             1415243      5.41%     99.99% # Type of FU issued
system.cpu.iq.FU_type_0::FloatMemRead            1611      0.01%    100.00% # Type of FU issued
system.cpu.iq.FU_type_0::FloatMemWrite           1261      0.00%    100.00% # Type of FU issued
system.cpu.iq.FU_type_0::IprAccess                  0      0.00%    100.00% # Type of FU issued
system.cpu.iq.FU_type_0::InstPrefetch               0      0.00%    100.00% # Type of FU issued
system.cpu.iq.FU_type_0::total               26182509                       # Type of FU issued
system.cpu.iq.rate                           0.821857                       # Inst issue rate
system.cpu.iq.fu_busy_cnt                           0                       # FU busy when requested
system.cpu.iq.fu_busy_rate                          0                       # FU busy rate (busy events/executed inst)
system.cpu.iq.int_inst_queue_reads           84282225                       # Number of integer instruction queue reads
system.cpu.iq.int_inst_queue_writes          32820910                       # Number of integer instruction queue writes
system.cpu.iq.int_inst_queue_wakeup_accesses     25668777                       # Number of integer instruction queue wakeup accesses
system.cpu.iq.fp_inst_queue_reads               16246                       # Number of floating instruction queue reads
system.cpu.iq.fp_inst_queue_writes              10509                       # Number of floating instruction queue writes
system.cpu.iq.fp_inst_queue_wakeup_accesses         7707                       # Number of floating instruction queue wakeup accesses
system.cpu.iq.vec_inst_queue_reads                  0                       # Number of vector instruction queue reads
system.cpu.iq.vec_inst_queue_writes                 0                       # Number of vector instruction queue writes
system.cpu.iq.vec_inst_queue_wakeup_accesses            0                       # Number of vector instruction queue wakeup accesses
system.cpu.iq.int_alu_accesses               26172141                       # Number of integer alu accesses
system.cpu.iq.fp_alu_accesses                    8081                       # Number of floating point alu accesses
system.cpu.iq.vec_alu_accesses                      0                       # Number of vector alu accesses
system.cpu.iew.lsq.thread0.forwLoads          1325795                       # Number of loads that had data forwarded from stores
system.cpu.iew.lsq.thread0.invAddrLoads             0                       # Number of loads ignored due to an invalid address
system.cpu.iew.lsq.thread0.squashedLoads      1535022                       # Number of loads squashed
system.cpu.iew.lsq.thread0.ignoredResponses         2665                       # Number of memory responses ignored because the instruction is squashed
system.cpu.iew.lsq.thread0.memOrderViolation          111                       # Number of memory ordering violations
system.cpu.iew.lsq.thread0.squashedStores       336580                       # Number of stores squashed
system.cpu.iew.lsq.thread0.invAddrSwpfs             0                       # Number of software prefetches ignored due to an invalid address
system.cpu.iew.lsq.thread0.blockedLoads             0                       # Number of blocked loads due to partial load-store forwarding
system.cpu.iew.lsq.thread0.rescheduledLoads            0                       # Number of loads that were rescheduled
system.cpu.iew.lsq.thread0.cacheBlocked           357                       # Number of times an access to memory failed due to the cache being blocked
system.cpu.iew.iewIdleCycles                        0                       # Number of cycles IEW is idle
system.cpu.iew.iewSquashCycles                 179499                       # Number of cycles IEW is squashing
system.cpu.iew.iewBlockCycles                  173409                       # Number of cycles IEW is blocking
system.cpu.iew.iewUnblockCycles                  2460                       # Number of cycles IEW is unblocking
system.cpu.iew.iewDispatchedInsts            28393215                       # Number of instructions dispatched to IQ
system.cpu.iew.iewDispSquashedInsts            122020                       # Number of squashed instructions skipped by dispatch
system.cpu.iew.iewDispLoadInsts               9349665                       # Number of dispatched load instructions
system.cpu.iew.iewDispStoreInsts              1612586                       # Number of dispatched store instructions
system.cpu.iew.iewDispNonSpecInsts                 94                       # Number of dispatched non-speculative instructions
system.cpu.iew.iewIQFullEvents                      0                       # Number of times the IQ has become full, causing a stall
system.cpu.iew.iewLSQFullEvents                  1563                       # Number of times the LSQ has become full, causing a stall
system.cpu.iew.memOrderViolationEvents            111                       # Number of memory order violations
system.cpu.iew.predictedTakenIncorrect          88398                       # Number of branches that were predicted taken incorrectly
system.cpu.iew.predictedNotTakenIncorrect        91088                       # Number of branches that were predicted not taken incorrectly
system.cpu.iew.branchMispredicts               179486                       # Number of branch mispredicts detected at execute
system.cpu.iew.iewExecutedInsts              25914260                       # Number of executed instructions
system.cpu.iew.iewExecLoadInsts               8677522                       # Number of load instructions executed
system.cpu.iew.iewExecSquashedInsts            268249                       # Number of squashed instructions skipped in execute
system.cpu.iew.exec_swp                             0                       # number of swp insts executed
system.cpu.iew.exec_nop                             0                       # number of nop insts executed
system.cpu.iew.exec_refs                     10085324                       # number of memory reference insts executed
system.cpu.iew.exec_branches                  1062200                       # Number of branches executed
system.cpu.iew.exec_stores                    1407802                       # Number of stores executed
system.cpu.iew.exec_rate                     0.813436                       # Inst execution rate
system.cpu.iew.wb_sent                       25821281                       # cumulative count of insts sent to commit
system.cpu.iew.wb_count                      25676484                       # cumulative count of insts written-back
system.cpu.iew.wb_producers                  23128379                       # num instructions producing a value
system.cpu.iew.wb_consumers                  25457038                       # num instructions consuming a value
system.cpu.iew.wb_rate                       0.805973                       # insts written-back per cycle
system.cpu.iew.wb_fanout                     0.908526                       # average fanout of values written-back
system.cpu.commit.commitSquashedInsts         4275884                       # The number of squashed insts skipped by commit
system.cpu.commit.commitNonSpecStalls              50                       # The number of times commit has been forced to stall to communicate backwards
system.cpu.commit.branchMispredicts            179388                       # The number of times a branch was mispredicted
system.cpu.commit.committed_per_cycle::samples     31581386                       # Number of insts commited each cycle
system.cpu.commit.committed_per_cycle::mean     0.758520                       # Number of insts commited each cycle
system.cpu.commit.committed_per_cycle::stdev     0.427980                       # Number of insts commited each cycle
system.cpu.commit.committed_per_cycle::underflows            0      0.00%      0.00% # Number of insts commited each cycle
system.cpu.commit.committed_per_cycle::0      7626265     24.15%     24.15% # Number of insts commited each cycle
system.cpu.commit.committed_per_cycle::1     23955121     75.85%    100.00% # Number of insts commited each cycle
system.cpu.commit.committed_per_cycle::overflows            0      0.00%    100.00% # Number of insts commited each cycle
system.cpu.commit.committed_per_cycle::min_value            0                       # Number of insts commited each cycle
system.cpu.commit.committed_per_cycle::max_value            1                       # Number of insts commited each cycle
system.cpu.commit.committed_per_cycle::total     31581386                       # Number of insts commited each cycle
system.cpu.commit.committedInsts             17737634                       # Number of instructions committed
system.cpu.commit.committedOps               23955121                       # Number of ops (including micro ops) committed
system.cpu.commit.swp_count                         0                       # Number of s/w prefetches committed
system.cpu.commit.refs                        9090649                       # Number of memory references committed
system.cpu.commit.loads                       7814643                       # Number of loads committed
system.cpu.commit.membars                           0                       # Number of memory barriers committed
system.cpu.commit.branches                    1053670                       # Number of branches committed
system.cpu.commit.vec_insts                         0                       # Number of committed Vector instructions.
system.cpu.commit.fp_insts                       6703                       # Number of committed floating point instructions.
system.cpu.commit.int_insts                  23949828                       # Number of committed integer instructions.
system.cpu.commit.function_calls                 3734                       # Number of function calls committed.
system.cpu.commit.op_class_0::No_OpClass         1448      0.01%      0.01% # Class of committed instruction
system.cpu.commit.op_class_0::IntAlu         14855711     62.01%     62.02% # Class of committed instruction
system.cpu.commit.op_class_0::IntMult            2151      0.01%     62.03% # Class of committed instruction
system.cpu.commit.op_class_0::IntDiv             1331      0.01%     62.04% # Class of committed instruction
system.cpu.commit.op_class_0::FloatAdd            142      0.00%     62.04% # Class of committed instruction
system.cpu.commit.op_class_0::FloatCmp              0      0.00%     62.04% # Class of committed instruction
system.cpu.commit.op_class_0::FloatCvt             32      0.00%     62.04% # Class of committed instruction
system.cpu.commit.op_class_0::FloatMult             0      0.00%     62.04% # Class of committed instruction
system.cpu.commit.op_class_0::FloatMultAcc            0      0.00%     62.04% # Class of committed instruction
system.cpu.commit.op_class_0::FloatDiv              0      0.00%     62.04% # Class of committed instruction
system.cpu.commit.op_class_0::FloatMisc             0      0.00%     62.04% # Class of committed instruction
system.cpu.commit.op_class_0::FloatSqrt             0      0.00%     62.04% # Class of committed instruction
system.cpu.commit.op_class_0::SimdAdd             792      0.00%     62.04% # Class of committed instruction
system.cpu.commit.op_class_0::SimdAddAcc            0      0.00%     62.04% # Class of committed instruction
system.cpu.commit.op_class_0::SimdAlu             797      0.00%     62.04% # Class of committed instruction
system.cpu.commit.op_class_0::SimdCmp               0      0.00%     62.04% # Class of committed instruction
system.cpu.commit.op_class_0::SimdCvt            1012      0.00%     62.05% # Class of committed instruction
system.cpu.commit.op_class_0::SimdMisc            765      0.00%     62.05% # Class of committed instruction
system.cpu.commit.op_class_0::SimdMult              0      0.00%     62.05% # Class of committed instruction
system.cpu.commit.op_class_0::SimdMultAcc            0      0.00%     62.05% # Class of committed instruction
system.cpu.commit.op_class_0::SimdShift           287      0.00%     62.05% # Class of committed instruction
system.cpu.commit.op_class_0::SimdShiftAcc            0      0.00%     62.05% # Class of committed instruction
system.cpu.commit.op_class_0::SimdSqrt              0      0.00%     62.05% # Class of committed instruction
system.cpu.commit.op_class_0::SimdFloatAdd            0      0.00%     62.05% # Class of committed instruction
system.cpu.commit.op_class_0::SimdFloatAlu            0      0.00%     62.05% # Class of committed instruction
system.cpu.commit.op_class_0::SimdFloatCmp            0      0.00%     62.05% # Class of committed instruction
system.cpu.commit.op_class_0::SimdFloatCvt            3      0.00%     62.05% # Class of committed instruction
system.cpu.commit.op_class_0::SimdFloatDiv            1      0.00%     62.05% # Class of committed instruction
system.cpu.commit.op_class_0::SimdFloatMisc            0      0.00%     62.05% # Class of committed instruction
system.cpu.commit.op_class_0::SimdFloatMult            0      0.00%     62.05% # Class of committed instruction
system.cpu.commit.op_class_0::SimdFloatMultAcc            0      0.00%     62.05% # Class of committed instruction
system.cpu.commit.op_class_0::SimdFloatSqrt            0      0.00%     62.05% # Class of committed instruction
system.cpu.commit.op_class_0::SimdAes               0      0.00%     62.05% # Class of committed instruction
system.cpu.commit.op_class_0::SimdAesMix            0      0.00%     62.05% # Class of committed instruction
system.cpu.commit.op_class_0::SimdSha1Hash            0      0.00%     62.05% # Class of committed instruction
system.cpu.commit.op_class_0::SimdSha1Hash2            0      0.00%     62.05% # Class of committed instruction
system.cpu.commit.op_class_0::SimdSha256Hash            0      0.00%     62.05% # Class of committed instruction
system.cpu.commit.op_class_0::SimdSha256Hash2            0      0.00%     62.05% # Class of committed instruction
system.cpu.commit.op_class_0::SimdShaSigma2            0      0.00%     62.05% # Class of committed instruction
system.cpu.commit.op_class_0::SimdShaSigma3            0      0.00%     62.05% # Class of committed instruction
system.cpu.commit.op_class_0::MemRead         7813410     32.62%     94.67% # Class of committed instruction
system.cpu.commit.op_class_0::MemWrite        1274941      5.32%     99.99% # Class of committed instruction
system.cpu.commit.op_class_0::FloatMemRead         1233      0.01%    100.00% # Class of committed instruction
system.cpu.commit.op_class_0::FloatMemWrite         1065      0.00%    100.00% # Class of committed instruction
system.cpu.commit.op_class_0::IprAccess             0      0.00%    100.00% # Class of committed instruction
system.cpu.commit.op_class_0::InstPrefetch            0      0.00%    100.00% # Class of committed instruction
system.cpu.commit.op_class_0::total          23955121                       # Class of committed instruction
system.cpu.commit.bw_lim_events              23955121                       # number cycles where commit BW limit reached
system.cpu.rob.rob_reads                     35857270                       # The number of ROB reads
system.cpu.rob.rob_writes                    56674391                       # The number of ROB writes
system.cpu.timesIdled                            1033                       # Number of times that the entire CPU went into an idle state and unscheduled itself
system.cpu.idleCycles                           63996                       # Total number of cycles that the CPU has spent unscheduled due to idling
system.cpu.committedInsts                    17737634                       # Number of Instructions Simulated
system.cpu.committedOps                      23955121                       # Number of Ops (including micro ops) Simulated
system.cpu.cpi                               1.796054                       # CPI: Cycles Per Instruction
system.cpu.cpi_total                         1.796054                       # CPI: Total CPI of All Threads
system.cpu.ipc                               0.556776                       # IPC: Instructions Per Cycle
system.cpu.ipc_total                         0.556776                       # IPC: Total IPC of All Threads
system.cpu.int_regfile_reads                 43976153                       # number of integer regfile reads
system.cpu.int_regfile_writes                23349030                       # number of integer regfile writes
system.cpu.fp_regfile_reads                     12342                       # number of floating regfile reads
system.cpu.fp_regfile_writes                     5909                       # number of floating regfile writes
system.cpu.cc_regfile_reads                   5318085                       # number of cc regfile reads
system.cpu.cc_regfile_writes                 11648086                       # number of cc regfile writes
system.cpu.misc_regfile_reads                12305300                       # number of misc regfile reads
system.cpu.misc_regfile_writes                     18                       # number of misc regfile writes
system.cpu.dcache.tags.pwrStateResidencyTicks::UNDEFINED  15928877500                       # Cumulative time (in ticks) in various power states
system.cpu.dcache.tags.tagsinuse            15.999210                       # Cycle average of tags in use
system.cpu.dcache.tags.total_refs             8605312                       # Total number of references to valid blocks.
system.cpu.dcache.tags.sampled_refs             43404                       # Sample count of references to valid blocks.
system.cpu.dcache.tags.avg_refs            198.260805                       # Average number of references to valid blocks.
system.cpu.dcache.tags.warmup_cycle            179500                       # Cycle when the warmup percentage was hit.
system.cpu.dcache.tags.occ_blocks::.cpu.data    15.999210                       # Average occupied blocks per requestor
system.cpu.dcache.tags.occ_percent::.cpu.data     0.999951                       # Average percentage of cache occupancy
system.cpu.dcache.tags.occ_percent::total     0.999951                       # Average percentage of cache occupancy
system.cpu.dcache.tags.occ_task_id_blocks::1024           16                       # Occupied blocks per task id
system.cpu.dcache.tags.age_task_id_blocks_1024::0           16                       # Occupied blocks per task id
system.cpu.dcache.tags.occ_task_id_percent::1024            1                       # Percentage of cache occupancy per task id
system.cpu.dcache.tags.tag_accesses          17298202                       # Number of tag accesses
system.cpu.dcache.tags.data_accesses         17298202                       # Number of data accesses
system.cpu.dcache.pwrStateResidencyTicks::UNDEFINED  15928877500                       # Cumulative time (in ticks) in various power states
system.cpu.dcache.ReadReq_hits::.cpu.data      7289366                       # number of ReadReq hits
system.cpu.dcache.ReadReq_hits::total         7289366                       # number of ReadReq hits
system.cpu.dcache.WriteReq_hits::.cpu.data      1272335                       # number of WriteReq hits
system.cpu.dcache.WriteReq_hits::total        1272335                       # number of WriteReq hits
system.cpu.dcache.demand_hits::.cpu.data      8561701                       # number of demand (read+write) hits
system.cpu.dcache.demand_hits::total          8561701                       # number of demand (read+write) hits
system.cpu.dcache.overall_hits::.cpu.data      8561701                       # number of overall hits
system.cpu.dcache.overall_hits::total         8561701                       # number of overall hits
system.cpu.dcache.ReadReq_misses::.cpu.data        62025                       # number of ReadReq misses
system.cpu.dcache.ReadReq_misses::total         62025                       # number of ReadReq misses
system.cpu.dcache.WriteReq_misses::.cpu.data         3673                       # number of WriteReq misses
system.cpu.dcache.WriteReq_misses::total         3673                       # number of WriteReq misses
system.cpu.dcache.demand_misses::.cpu.data        65698                       # number of demand (read+write) misses
system.cpu.dcache.demand_misses::total          65698                       # number of demand (read+write) misses
system.cpu.dcache.overall_misses::.cpu.data        65698                       # number of overall misses
system.cpu.dcache.overall_misses::total         65698                       # number of overall misses
system.cpu.dcache.ReadReq_miss_latency::.cpu.data   1222107500                       # number of ReadReq miss cycles
system.cpu.dcache.ReadReq_miss_latency::total   1222107500                       # number of ReadReq miss cycles
system.cpu.dcache.WriteReq_miss_latency::.cpu.data     97008500                       # number of WriteReq miss cycles
system.cpu.dcache.WriteReq_miss_latency::total     97008500                       # number of WriteReq miss cycles
system.cpu.dcache.demand_miss_latency::.cpu.data   1319116000                       # number of demand (read+write) miss cycles
system.cpu.dcache.demand_miss_latency::total   1319116000                       # number of demand (read+write) miss cycles
system.cpu.dcache.overall_miss_latency::.cpu.data   1319116000                       # number of overall miss cycles
system.cpu.dcache.overall_miss_latency::total   1319116000                       # number of overall miss cycles
system.cpu.dcache.ReadReq_accesses::.cpu.data      7351391                       # number of ReadReq accesses(hits+misses)
system.cpu.dcache.ReadReq_accesses::total      7351391                       # number of ReadReq accesses(hits+misses)
system.cpu.dcache.WriteReq_accesses::.cpu.data      1276008                       # number of WriteReq accesses(hits+misses)
system.cpu.dcache.WriteReq_accesses::total      1276008                       # number of WriteReq accesses(hits+misses)
system.cpu.dcache.demand_accesses::.cpu.data      8627399                       # number of demand (read+write) accesses
system.cpu.dcache.demand_accesses::total      8627399                       # number of demand (read+write) accesses
system.cpu.dcache.overall_accesses::.cpu.data      8627399                       # number of overall (read+write) accesses
system.cpu.dcache.overall_accesses::total      8627399                       # number of overall (read+write) accesses
system.cpu.dcache.ReadReq_miss_rate::.cpu.data     0.008437                       # miss rate for ReadReq accesses
system.cpu.dcache.ReadReq_miss_rate::total     0.008437                       # miss rate for ReadReq accesses
system.cpu.dcache.WriteReq_miss_rate::.cpu.data     0.002879                       # miss rate for WriteReq accesses
system.cpu.dcache.WriteReq_miss_rate::total     0.002879                       # miss rate for WriteReq accesses
system.cpu.dcache.demand_miss_rate::.cpu.data     0.007615                       # miss rate for demand accesses
system.cpu.dcache.demand_miss_rate::total     0.007615                       # miss rate for demand accesses
system.cpu.dcache.overall_miss_rate::.cpu.data     0.007615                       # miss rate for overall accesses
[...]
system.l3cache.tags.occ_task_id_blocks::1024         3519                       # Occupied blocks per task id
system.l3cache.tags.age_task_id_blocks_1024::0          101                       # Occupied blocks per task id
system.l3cache.tags.age_task_id_blocks_1024::1          736                       # Occupied blocks per task id
system.l3cache.tags.age_task_id_blocks_1024::2          639                       # Occupied blocks per task id
system.l3cache.tags.age_task_id_blocks_1024::4         2043                       # Occupied blocks per task id
system.l3cache.tags.occ_task_id_percent::1024     0.859131                       # Percentage of cache occupancy per task id
system.l3cache.tags.tag_accesses                46064                       # Number of tag accesses
system.l3cache.tags.data_accesses               46064                       # Number of data accesses
system.l3cache.pwrStateResidencyTicks::UNDEFINED  15928877500                       # Cumulative time (in ticks) in various power states
system.l3cache.WritebackDirty_hits::.writebacks         2094                       # number of WritebackDirty hits
system.l3cache.WritebackDirty_hits::total         2094                       # number of WritebackDirty hits
system.l3cache.ReadExReq_hits::.cpu.data          252                       # number of ReadExReq hits
system.l3cache.ReadExReq_hits::total              252                       # number of ReadExReq hits
system.l3cache.ReadSharedReq_hits::.cpu.inst         2148                       # number of ReadSharedReq hits
system.l3cache.ReadSharedReq_hits::.cpu.data         2166                       # number of ReadSharedReq hits
system.l3cache.ReadSharedReq_hits::total         4314                       # number of ReadSharedReq hits
system.l3cache.demand_hits::.cpu.inst            2148                       # number of demand (read+write) hits
system.l3cache.demand_hits::.cpu.data            2418                       # number of demand (read+write) hits
system.l3cache.demand_hits::total                4566                       # number of demand (read+write) hits
system.l3cache.overall_hits::.cpu.inst           2148                       # number of overall hits
system.l3cache.overall_hits::.cpu.data           2418                       # number of overall hits
system.l3cache.overall_hits::total               4566                       # number of overall hits
system.l3cache.ReadExReq_misses::.cpu.data          569                       # number of ReadExReq misses
system.l3cache.ReadExReq_misses::total            569                       # number of ReadExReq misses
system.l3cache.ReadSharedReq_misses::.cpu.inst         1278                       # number of ReadSharedReq misses
system.l3cache.ReadSharedReq_misses::.cpu.data         2038                       # number of ReadSharedReq misses
system.l3cache.ReadSharedReq_misses::total         3316                       # number of ReadSharedReq misses
system.l3cache.demand_misses::.cpu.inst          1278                       # number of demand (read+write) misses
system.l3cache.demand_misses::.cpu.data          2607                       # number of demand (read+write) misses
system.l3cache.demand_misses::total              3885                       # number of demand (read+write) misses
system.l3cache.overall_misses::.cpu.inst         1278                       # number of overall misses
system.l3cache.overall_misses::.cpu.data         2607                       # number of overall misses
system.l3cache.overall_misses::total             3885                       # number of overall misses
system.l3cache.ReadExReq_miss_latency::.cpu.data     39226500                       # number of ReadExReq miss cycles
system.l3cache.ReadExReq_miss_latency::total     39226500                       # number of ReadExReq miss cycles
system.l3cache.ReadSharedReq_miss_latency::.cpu.inst     90591000                       # number of ReadSharedReq miss cycles
system.l3cache.ReadSharedReq_miss_latency::.cpu.data    141645500                       # number of ReadSharedReq miss cycles
system.l3cache.ReadSharedReq_miss_latency::total    232236500                       # number of ReadSharedReq miss cycles
system.l3cache.demand_miss_latency::.cpu.inst     90591000                       # number of demand (read+write) miss cycles
system.l3cache.demand_miss_latency::.cpu.data    180872000                       # number of demand (read+write) miss cycles
system.l3cache.demand_miss_latency::total    271463000                       # number of demand (read+write) miss cycles
system.l3cache.overall_miss_latency::.cpu.inst     90591000                       # number of overall miss cycles
system.l3cache.overall_miss_latency::.cpu.data    180872000                       # number of overall miss cycles
system.l3cache.overall_miss_latency::total    271463000                       # number of overall miss cycles
system.l3cache.WritebackDirty_accesses::.writebacks         2094                       # number of WritebackDirty accesses(hits+misses)
system.l3cache.WritebackDirty_accesses::total         2094                       # number of WritebackDirty accesses(hits+misses)
system.l3cache.ReadExReq_accesses::.cpu.data          821                       # number of ReadExReq accesses(hits+misses)
system.l3cache.ReadExReq_accesses::total          821                       # number of ReadExReq accesses(hits+misses)
system.l3cache.ReadSharedReq_accesses::.cpu.inst         3426                       # number of ReadSharedReq accesses(hits+misses)
system.l3cache.ReadSharedReq_accesses::.cpu.data         4204                       # number of ReadSharedReq accesses(hits+misses)
system.l3cache.ReadSharedReq_accesses::total         7630                       # number of ReadSharedReq accesses(hits+misses)
system.l3cache.demand_accesses::.cpu.inst         3426                       # number of demand (read+write) accesses
system.l3cache.demand_accesses::.cpu.data         5025                       # number of demand (read+write) accesses
system.l3cache.demand_accesses::total            8451                       # number of demand (read+write) accesses
system.l3cache.overall_accesses::.cpu.inst         3426                       # number of overall (read+write) accesses
system.l3cache.overall_accesses::.cpu.data         5025                       # number of overall (read+write) accesses
system.l3cache.overall_accesses::total           8451                       # number of overall (read+write) accesses
system.l3cache.ReadExReq_miss_rate::.cpu.data     0.693057                       # miss rate for ReadExReq accesses
system.l3cache.ReadExReq_miss_rate::total     0.693057                       # miss rate for ReadExReq accesses
system.l3cache.ReadSharedReq_miss_rate::.cpu.inst     0.373030                       # miss rate for ReadSharedReq accesses
system.l3cache.ReadSharedReq_miss_rate::.cpu.data     0.484776                       # miss rate for ReadSharedReq accesses
system.l3cache.ReadSharedReq_miss_rate::total     0.434600                       # miss rate for ReadSharedReq accesses
system.l3cache.demand_miss_rate::.cpu.inst     0.373030                       # miss rate for demand accesses
system.l3cache.demand_miss_rate::.cpu.data     0.518806                       # miss rate for demand accesses
system.l3cache.demand_miss_rate::total       0.459709                       # miss rate for demand accesses
system.l3cache.overall_miss_rate::.cpu.inst     0.373030                       # miss rate for overall accesses
system.l3cache.overall_miss_rate::.cpu.data     0.518806                       # miss rate for overall accesses
system.l3cache.overall_miss_rate::total      0.459709                       # miss rate for overall accesses
system.l3cache.ReadExReq_avg_miss_latency::.cpu.data 68939.367311                       # average ReadExReq miss latency
system.l3cache.ReadExReq_avg_miss_latency::total 68939.367311                       # average ReadExReq miss latency
system.l3cache.ReadSharedReq_avg_miss_latency::.cpu.inst 70884.976526                       # average ReadSharedReq miss latency
system.l3cache.ReadSharedReq_avg_miss_latency::.cpu.data 69502.208047                       # average ReadSharedReq miss latency
system.l3cache.ReadSharedReq_avg_miss_latency::total 70035.132690                       # average ReadSharedReq miss latency
system.l3cache.demand_avg_miss_latency::.cpu.inst 70884.976526                       # average overall miss latency
system.l3cache.demand_avg_miss_latency::.cpu.data 69379.363253                       # average overall miss latency
system.l3cache.demand_avg_miss_latency::total 69874.646075                       # average overall miss latency
system.l3cache.overall_avg_miss_latency::.cpu.inst 70884.976526                       # average overall miss latency
system.l3cache.overall_avg_miss_latency::.cpu.data 69379.363253                       # average overall miss latency
system.l3cache.overall_avg_miss_latency::total 69874.646075                       # average overall miss latency
system.l3cache.blocked_cycles::no_mshrs             0                       # number of cycles access was blocked
system.l3cache.blocked_cycles::no_targets            0                       # number of cycles access was blocked
system.l3cache.blocked::no_mshrs                    0                       # number of cycles access was blocked
system.l3cache.blocked::no_targets                  0                       # number of cycles access was blocked
system.l3cache.avg_blocked_cycles::no_mshrs          nan                       # average number of cycles each access was blocked
system.l3cache.avg_blocked_cycles::no_targets          nan                       # average number of cycles each access was blocked
system.l3cache.writebacks::.writebacks             16                       # number of writebacks
system.l3cache.writebacks::total                   16                       # number of writebacks
system.l3cache.ReadExReq_mshr_misses::.cpu.data          569                       # number of ReadExReq MSHR misses
system.l3cache.ReadExReq_mshr_misses::total          569                       # number of ReadExReq MSHR misses
system.l3cache.ReadSharedReq_mshr_misses::.cpu.inst         1278                       # number of ReadSharedReq MSHR misses
system.l3cache.ReadSharedReq_mshr_misses::.cpu.data         2038                       # number of ReadSharedReq MSHR misses
system.l3cache.ReadSharedReq_mshr_misses::total         3316                       # number of ReadSharedReq MSHR misses
system.l3cache.demand_mshr_misses::.cpu.inst         1278                       # number of demand (read+write) MSHR misses
system.l3cache.demand_mshr_misses::.cpu.data         2607                       # number of demand (read+write) MSHR misses
system.l3cache.demand_mshr_misses::total         3885                       # number of demand (read+write) MSHR misses
system.l3cache.overall_mshr_misses::.cpu.inst         1278                       # number of overall MSHR misses
system.l3cache.overall_mshr_misses::.cpu.data         2607                       # number of overall MSHR misses
system.l3cache.overall_mshr_misses::total         3885                       # number of overall MSHR misses
system.l3cache.ReadExReq_mshr_miss_latency::.cpu.data     38088500                       # number of ReadExReq MSHR miss cycles
system.l3cache.ReadExReq_mshr_miss_latency::total     38088500                       # number of ReadExReq MSHR miss cycles
system.l3cache.ReadSharedReq_mshr_miss_latency::.cpu.inst     88037000                       # number of ReadSharedReq MSHR miss cycles
system.l3cache.ReadSharedReq_mshr_miss_latency::.cpu.data    137569500                       # number of ReadSharedReq MSHR miss cycles
system.l3cache.ReadSharedReq_mshr_miss_latency::total    225606500                       # number of ReadSharedReq MSHR miss cycles
system.l3cache.demand_mshr_miss_latency::.cpu.inst     88037000                       # number of demand (read+write) MSHR miss cycles
system.l3cache.demand_mshr_miss_latency::.cpu.data    175658000                       # number of demand (read+write) MSHR miss cycles
system.l3cache.demand_mshr_miss_latency::total    263695000                       # number of demand (read+write) MSHR miss cycles
system.l3cache.overall_mshr_miss_latency::.cpu.inst     88037000                       # number of overall MSHR miss cycles
system.l3cache.overall_mshr_miss_latency::.cpu.data    175658000                       # number of overall MSHR miss cycles
system.l3cache.overall_mshr_miss_latency::total    263695000                       # number of overall MSHR miss cycles
system.l3cache.ReadExReq_mshr_miss_rate::.cpu.data     0.693057                       # mshr miss rate for ReadExReq accesses
system.l3cache.ReadExReq_mshr_miss_rate::total     0.693057                       # mshr miss rate for ReadExReq accesses
system.l3cache.ReadSharedReq_mshr_miss_rate::.cpu.inst     0.373030                       # mshr miss rate for ReadSharedReq accesses
system.l3cache.ReadSharedReq_mshr_miss_rate::.cpu.data     0.484776                       # mshr miss rate for ReadSharedReq accesses
system.l3cache.ReadSharedReq_mshr_miss_rate::total     0.434600                       # mshr miss rate for ReadSharedReq accesses
system.l3cache.demand_mshr_miss_rate::.cpu.inst     0.373030                       # mshr miss rate for demand accesses
system.l3cache.demand_mshr_miss_rate::.cpu.data     0.518806                       # mshr miss rate for demand accesses
system.l3cache.demand_mshr_miss_rate::total     0.459709                       # mshr miss rate for demand accesses
system.l3cache.overall_mshr_miss_rate::.cpu.inst     0.373030                       # mshr miss rate for overall accesses
system.l3cache.overall_mshr_miss_rate::.cpu.data     0.518806                       # mshr miss rate for overall accesses
system.l3cache.overall_mshr_miss_rate::total     0.459709                       # mshr miss rate for overall accesses
system.l3cache.ReadExReq_avg_mshr_miss_latency::.cpu.data 66939.367311                       # average ReadExReq mshr miss latency
system.l3cache.ReadExReq_avg_mshr_miss_latency::total 66939.367311                       # average ReadExReq mshr miss latency
system.l3cache.ReadSharedReq_avg_mshr_miss_latency::.cpu.inst 68886.541471                       # average ReadSharedReq mshr miss latency
system.l3cache.ReadSharedReq_avg_mshr_miss_latency::.cpu.data 67502.208047                       # average ReadSharedReq mshr miss latency
system.l3cache.ReadSharedReq_avg_mshr_miss_latency::total 68035.735826                       # average ReadSharedReq mshr miss latency
system.l3cache.demand_avg_mshr_miss_latency::.cpu.inst 68886.541471                       # average overall mshr miss latency
system.l3cache.demand_avg_mshr_miss_latency::.cpu.data 67379.363253                       # average overall mshr miss latency
system.l3cache.demand_avg_mshr_miss_latency::total 67875.160875                       # average overall mshr miss latency
system.l3cache.overall_avg_mshr_miss_latency::.cpu.inst 68886.541471                       # average overall mshr miss latency
system.l3cache.overall_avg_mshr_miss_latency::.cpu.data 67379.363253                       # average overall mshr miss latency
system.l3cache.overall_avg_mshr_miss_latency::total 67875.160875                       # average overall mshr miss latency
system.l3cache.replacements                       365                       # number of replacements
system.membus.snoop_filter.tot_requests          4250                       # Total number of requests made to the snoop filter.
system.membus.snoop_filter.hit_single_requests          365                       # Number of requests hitting in the snoop filter with a single holder of the requested data.
system.membus.snoop_filter.hit_multi_requests            0                       # Number of requests hitting in the snoop filter with multiple (>1) holders of the requested data.
system.membus.snoop_filter.tot_snoops               0                       # Total number of snoops made to the snoop filter.
system.membus.snoop_filter.hit_single_snoops            0                       # Number of snoops hitting in the snoop filter with a single holder of the requested data.
system.membus.snoop_filter.hit_multi_snoops            0                       # Number of snoops hitting in the snoop filter with multiple (>1) holders of the requested data.
system.membus.pwrStateResidencyTicks::UNDEFINED  15928877500                       # Cumulative time (in ticks) in various power states
system.membus.trans_dist::ReadResp               3315                       # Transaction distribution
system.membus.trans_dist::WritebackDirty           16                       # Transaction distribution
system.membus.trans_dist::CleanEvict              349                       # Transaction distribution
system.membus.trans_dist::ReadExReq               569                       # Transaction distribution
system.membus.trans_dist::ReadExResp              569                       # Transaction distribution
system.membus.trans_dist::ReadSharedReq          3316                       # Transaction distribution
system.membus.pkt_count_system.l3cache.mem_side::system.mem_ctrl.port         8134                       # Packet count per connected master and slave (bytes)
system.membus.pkt_count_system.l3cache.mem_side::total         8134                       # Packet count per connected master and slave (bytes)
system.membus.pkt_count::total                   8134                       # Packet count per connected master and slave (bytes)
system.membus.pkt_size_system.l3cache.mem_side::system.mem_ctrl.port       249600                       # Cumulative packet size per connected master and slave (bytes)
system.membus.pkt_size_system.l3cache.mem_side::total       249600                       # Cumulative packet size per connected master and slave (bytes)
system.membus.pkt_size::total                  249600                       # Cumulative packet size per connected master and slave (bytes)
system.membus.snoops                                0                       # Total snoops (count)
system.membus.snoopTraffic                          0                       # Total snoop traffic (bytes)
system.membus.snoop_fanout::samples              3885                       # Request fanout histogram
system.membus.snoop_fanout::mean                    0                       # Request fanout histogram
system.membus.snoop_fanout::stdev                   0                       # Request fanout histogram
system.membus.snoop_fanout::underflows              0      0.00%      0.00% # Request fanout histogram
system.membus.snoop_fanout::0                    3885    100.00%    100.00% # Request fanout histogram
system.membus.snoop_fanout::1                       0      0.00%    100.00% # Request fanout histogram
system.membus.snoop_fanout::overflows               0      0.00%    100.00% # Request fanout histogram
system.membus.snoop_fanout::min_value               0                       # Request fanout histogram
system.membus.snoop_fanout::max_value               0                       # Request fanout histogram
system.membus.snoop_fanout::total                3885                       # Request fanout histogram
system.membus.reqLayer0.occupancy             2157000                       # Layer occupancy (ticks)
system.membus.reqLayer0.utilization               0.0                       # Layer utilization (%)
system.membus.respLayer0.occupancy           10529250                       # Layer occupancy (ticks)
system.membus.respLayer0.utilization              0.1                       # Layer utilization (%)

---------- End Simulation Statistics   ----------
